*SPEF "ieee 1481-1999"
*DESIGN "impl_top"
*DATE "03:40:36 Friday March 06, 2026"
*VENDOR "The OpenROAD Project"
*PROGRAM "OpenROAD"
*VERSION "edf00dff99f6c40d67a30c0e22a8191c5d2ed9d6"
*DESIGN_FLOW "NAME_SCOPE LOCAL" "PIN_CAP NONE"
*DIVIDER /
*DELIMITER :
*BUS_DELIMITER []
*T_UNIT 1 NS
*C_UNIT 1 PF
*R_UNIT 1 OHM
*L_UNIT 1 HENRY

*NAME_MAP
*3 clk
*4 led[0]
*5 led[1]
*6 led[2]
*7 led[3]
*8 led[4]
*9 led[5]
*10 led[6]
*11 led[7]
*12 sw_0
*13 sw_1
*14 uart_rxd
*15 uart_txd
*16 _000_
*17 _001_
*18 _002_
*19 _003_
*20 _004_
*21 _005_
*22 _006_
*23 _007_
*24 _008_
*25 _009_
*26 _010_
*27 _011_
*28 _012_
*29 _013_
*30 _014_
*31 _015_
*32 _016_
*33 _017_
*34 _018_
*35 _019_
*36 _020_
*37 _021_
*38 _022_
*39 _023_
*40 _024_
*41 _025_
*42 _026_
*43 _027_
*44 _028_
*45 _029_
*46 _030_
*47 _031_
*48 _032_
*49 _033_
*50 _034_
*51 _035_
*52 _036_
*53 _037_
*54 _038_
*55 _039_
*56 _040_
*57 _041_
*58 _042_
*59 _043_
*60 _044_
*61 _045_
*62 _046_
*63 _047_
*64 _048_
*65 _049_
*66 _050_
*67 _051_
*68 _052_
*69 _053_
*70 _054_
*71 _055_
*72 _056_
*73 _057_
*74 _058_
*75 _059_
*76 _060_
*77 _061_
*78 _062_
*79 _063_
*80 _064_
*81 _065_
*82 _066_
*83 _067_
*84 _068_
*85 _069_
*86 _070_
*87 _071_
*88 _072_
*89 _073_
*90 _074_
*91 _075_
*92 _076_
*93 _077_
*94 _078_
*95 _079_
*96 _080_
*97 _081_
*98 _082_
*99 _083_
*100 _084_
*101 _085_
*102 _086_
*103 _087_
*104 _088_
*105 _089_
*106 _090_
*107 _091_
*108 _092_
*109 _093_
*110 _094_
*111 _095_
*112 _096_
*113 _097_
*114 _098_
*115 _099_
*116 _100_
*117 _101_
*118 _102_
*119 _103_
*120 _104_
*121 _105_
*122 _106_
*123 _107_
*124 _108_
*125 _109_
*126 _110_
*127 _111_
*128 _112_
*129 _113_
*130 _114_
*131 _115_
*132 _116_
*133 _117_
*134 _118_
*135 _119_
*136 _120_
*137 _121_
*138 _122_
*139 _123_
*140 _124_
*141 _125_
*142 _126_
*143 _127_
*144 _128_
*145 _129_
*146 _130_
*147 _131_
*148 _132_
*149 _133_
*150 _134_
*151 _135_
*152 _136_
*153 _137_
*154 _138_
*155 _139_
*156 _140_
*157 _141_
*158 _142_
*159 _143_
*160 _144_
*161 _145_
*162 _146_
*163 _147_
*164 _148_
*165 _149_
*166 _150_
*167 _151_
*168 _152_
*169 _153_
*170 _154_
*171 _155_
*172 _156_
*173 _157_
*174 _158_
*175 _159_
*176 _160_
*177 _161_
*178 _162_
*179 _163_
*180 _164_
*181 _165_
*182 _166_
*183 _167_
*184 _168_
*185 _169_
*186 _170_
*187 _171_
*188 _172_
*189 _173_
*190 _174_
*191 _175_
*192 _176_
*193 _177_
*194 _178_
*195 _179_
*196 _180_
*197 _181_
*198 _182_
*199 _183_
*200 _184_
*201 _185_
*202 _186_
*203 _187_
*204 _188_
*205 _189_
*206 _190_
*207 _191_
*208 _192_
*209 _193_
*210 _194_
*211 _195_
*212 _196_
*213 _197_
*214 _198_
*215 _199_
*216 _200_
*217 _201_
*218 _202_
*219 _203_
*220 _204_
*221 _205_
*222 _206_
*223 _207_
*224 _208_
*225 _209_
*226 _210_
*227 _211_
*228 _212_
*229 _213_
*230 _214_
*231 _215_
*232 _216_
*233 _217_
*234 _218_
*235 _219_
*236 _220_
*237 _221_
*238 _222_
*239 _223_
*240 _224_
*241 _225_
*242 _226_
*243 _227_
*244 _228_
*245 _229_
*246 _230_
*247 _231_
*248 _232_
*249 _233_
*250 _234_
*251 _235_
*252 _236_
*253 _237_
*254 _238_
*255 _239_
*256 _240_
*257 _241_
*258 _242_
*259 clknet_0_clk
*260 clknet_3_0__leaf_clk
*261 clknet_3_1__leaf_clk
*262 clknet_3_2__leaf_clk
*263 clknet_3_3__leaf_clk
*264 clknet_3_4__leaf_clk
*265 clknet_3_5__leaf_clk
*266 clknet_3_6__leaf_clk
*267 clknet_3_7__leaf_clk
*268 i_uart_rx\.bit_counter\[0\]
*269 i_uart_rx\.bit_counter\[1\]
*270 i_uart_rx\.bit_counter\[2\]
*271 i_uart_rx\.bit_counter\[3\]
*272 i_uart_rx\.bit_sample
*273 i_uart_rx\.cycle_counter\[0\]
*274 i_uart_rx\.cycle_counter\[10\]
*275 i_uart_rx\.cycle_counter\[11\]
*276 i_uart_rx\.cycle_counter\[12\]
*277 i_uart_rx\.cycle_counter\[13\]
*278 i_uart_rx\.cycle_counter\[1\]
*279 i_uart_rx\.cycle_counter\[2\]
*280 i_uart_rx\.cycle_counter\[3\]
*281 i_uart_rx\.cycle_counter\[4\]
*282 i_uart_rx\.cycle_counter\[5\]
*283 i_uart_rx\.cycle_counter\[6\]
*284 i_uart_rx\.cycle_counter\[7\]
*285 i_uart_rx\.cycle_counter\[8\]
*286 i_uart_rx\.cycle_counter\[9\]
*287 i_uart_rx\.fsm_state\[0\]
*288 i_uart_rx\.fsm_state\[1\]
*289 i_uart_rx\.fsm_state\[2\]
*290 i_uart_rx\.fsm_state\[3\]
*291 i_uart_rx\.recieved_data\[0\]
*292 i_uart_rx\.recieved_data\[1\]
*293 i_uart_rx\.recieved_data\[2\]
*294 i_uart_rx\.recieved_data\[3\]
*295 i_uart_rx\.recieved_data\[4\]
*296 i_uart_rx\.recieved_data\[5\]
*297 i_uart_rx\.recieved_data\[6\]
*298 i_uart_rx\.recieved_data\[7\]
*299 i_uart_rx\.rxd_reg
*300 i_uart_rx\.rxd_reg_0
*301 i_uart_rx\.uart_rx_data\[0\]
*302 i_uart_rx\.uart_rx_data\[1\]
*303 i_uart_rx\.uart_rx_data\[2\]
*304 i_uart_rx\.uart_rx_data\[3\]
*305 i_uart_rx\.uart_rx_data\[4\]
*306 i_uart_rx\.uart_rx_data\[5\]
*307 i_uart_rx\.uart_rx_data\[6\]
*308 i_uart_rx\.uart_rx_data\[7\]
*309 i_uart_tx\.bit_counter\[0\]
*310 i_uart_tx\.bit_counter\[1\]
*311 i_uart_tx\.bit_counter\[2\]
*312 i_uart_tx\.bit_counter\[3\]
*313 i_uart_tx\.cycle_counter\[0\]
*314 i_uart_tx\.cycle_counter\[10\]
*315 i_uart_tx\.cycle_counter\[11\]
*316 i_uart_tx\.cycle_counter\[12\]
*317 i_uart_tx\.cycle_counter\[13\]
*318 i_uart_tx\.cycle_counter\[1\]
*319 i_uart_tx\.cycle_counter\[2\]
*320 i_uart_tx\.cycle_counter\[3\]
*321 i_uart_tx\.cycle_counter\[4\]
*322 i_uart_tx\.cycle_counter\[5\]
*323 i_uart_tx\.cycle_counter\[6\]
*324 i_uart_tx\.cycle_counter\[7\]
*325 i_uart_tx\.cycle_counter\[8\]
*326 i_uart_tx\.cycle_counter\[9\]
*327 i_uart_tx\.data_to_send\[0\]
*328 i_uart_tx\.data_to_send\[1\]
*329 i_uart_tx\.data_to_send\[2\]
*330 i_uart_tx\.data_to_send\[3\]
*331 i_uart_tx\.data_to_send\[4\]
*332 i_uart_tx\.data_to_send\[5\]
*333 i_uart_tx\.data_to_send\[6\]
*334 i_uart_tx\.data_to_send\[7\]
*335 i_uart_tx\.fsm_state\[0\]
*336 i_uart_tx\.fsm_state\[1\]
*337 i_uart_tx\.fsm_state\[2\]
*338 i_uart_tx\.fsm_state\[3\]
*339 net1
*340 net10
*341 net100
*342 net101
*343 net102
*344 net103
*345 net104
*346 net105
*347 net106
*348 net107
*349 net108
*350 net109
*351 net11
*352 net110
*353 net111
*354 net112
*355 net113
*356 net114
*357 net115
*358 net116
*359 net117
*360 net118
*361 net119
*362 net12
*363 net120
*364 net121
*365 net122
*366 net123
*367 net124
*368 net125
*369 net126
*370 net127
*371 net128
*372 net129
*373 net13
*374 net130
*375 net131
*376 net132
*377 net133
*378 net134
*379 net135
*380 net136
*381 net137
*382 net138
*383 net139
*384 net14
*385 net140
*386 net141
*387 net142
*388 net143
*389 net144
*390 net145
*391 net146
*392 net147
*393 net148
*394 net149
*395 net15
*396 net150
*397 net151
*398 net152
*399 net153
*400 net154
*401 net155
*402 net156
*403 net157
*404 net158
*405 net159
*406 net16
*407 net160
*408 net161
*409 net162
*410 net163
*411 net164
*412 net165
*413 net166
*414 net167
*415 net168
*416 net169
*417 net17
*418 net170
*419 net171
*420 net172
*421 net173
*422 net174
*423 net175
*424 net176
*425 net177
*426 net178
*427 net179
*428 net18
*429 net180
*430 net181
*431 net182
*432 net183
*433 net184
*434 net19
*435 net2
*436 net20
*437 net21
*438 net22
*439 net23
*440 net24
*441 net25
*442 net26
*443 net27
*444 net28
*445 net29
*446 net3
*447 net30
*448 net31
*449 net32
*450 net33
*451 net34
*452 net35
*453 net36
*454 net37
*455 net38
*456 net39
*457 net4
*458 net40
*459 net41
*460 net42
*461 net43
*462 net44
*463 net45
*464 net46
*465 net47
*466 net48
*467 net49
*468 net5
*469 net50
*470 net51
*471 net52
*472 net53
*473 net54
*474 net55
*475 net56
*476 net57
*477 net58
*478 net59
*479 net6
*480 net60
*481 net61
*482 net62
*483 net63
*484 net64
*485 net65
*486 net66
*487 net67
*488 net68
*489 net69
*490 net7
*491 net70
*492 net71
*493 net72
*494 net73
*495 net74
*496 net75
*497 net76
*498 net77
*499 net78
*500 net79
*501 net8
*502 net80
*503 net81
*504 net82
*505 net83
*506 net84
*507 net85
*508 net86
*509 net87
*510 net88
*511 net89
*512 net9
*513 net90
*514 net91
*515 net92
*516 net93
*517 net94
*518 net95
*519 net96
*520 net97
*521 net98
*522 net99
*523 ANTENNA__247__Y
*524 ANTENNA__271__C1
*525 ANTENNA__283__X
*526 ANTENNA__286__A2
*527 ANTENNA__286__C1
*528 ANTENNA__291__A
*529 ANTENNA__293__A
*530 ANTENNA__297__A
*531 ANTENNA__300__B1
*532 ANTENNA__303__A2
*533 ANTENNA__305__A2
*534 ANTENNA__307__A2
*535 ANTENNA__308__B1
*536 ANTENNA__309__A2
*537 ANTENNA__310__B1
*538 ANTENNA__311__A2
*539 ANTENNA__312__B1
*540 ANTENNA__312__X
*541 ANTENNA__313__A2
*542 ANTENNA__313__B1
*543 ANTENNA__314__B1
*544 ANTENNA__314__X
*545 ANTENNA__315__A2
*546 ANTENNA__315__B1
*547 ANTENNA__358__B
*548 ANTENNA__429__A
*549 ANTENNA__430__A
*550 ANTENNA__430__B
*551 ANTENNA__432__B1
*552 ANTENNA__484__B2
*553 ANTENNA__485__A
*554 ANTENNA__496__CLK
*555 ANTENNA__496__Q
*556 ANTENNA__497__CLK
*557 ANTENNA__497__Q
*558 ANTENNA__555__CLK
*559 ANTENNA__556__CLK
*560 ANTENNA__558__CLK
*561 ANTENNA__559__CLK
*562 ANTENNA__565__Q
*563 ANTENNA_clkbuf_0_clk_A
*564 ANTENNA_clkbuf_0_clk_X
*565 ANTENNA_clkbuf_3_0__f_clk_A
*566 ANTENNA_clkbuf_3_0__f_clk_X
*567 ANTENNA_clkbuf_3_1__f_clk_A
*568 ANTENNA_clkbuf_3_2__f_clk_A
*569 ANTENNA_clkbuf_3_3__f_clk_A
*570 ANTENNA_clkbuf_3_4__f_clk_A
*571 ANTENNA_clkbuf_3_5__f_clk_A
*572 ANTENNA_clkbuf_3_6__f_clk_A
*573 ANTENNA_clkbuf_3_7__f_clk_A
*574 ANTENNA_clkload0_A
*575 ANTENNA_hold129_A
*576 ANTENNA_hold130_A
*577 ANTENNA_input1_A
*578 ANTENNA_input2_A
*579 ANTENNA_input2_X
*580 ANTENNA_output10_A
*581 ANTENNA_output11_A
*582 ANTENNA_output9_A
*583 FILLER_0_1005
*584 FILLER_0_1007
*585 FILLER_0_1009
*586 FILLER_0_1021
*587 FILLER_0_1033
*588 FILLER_0_1035
*589 FILLER_0_1037
*590 FILLER_0_1049
*591 FILLER_0_1057
*592 FILLER_0_109
*593 FILLER_0_111
*594 FILLER_0_113
*595 FILLER_0_125
*596 FILLER_0_137
*597 FILLER_0_139
*598 FILLER_0_141
*599 FILLER_0_15
*600 FILLER_0_153
*601 FILLER_0_165
*602 FILLER_0_167
*603 FILLER_0_169
*604 FILLER_0_181
*605 FILLER_0_193
*606 FILLER_0_195
*607 FILLER_0_197
*608 FILLER_0_209
*609 FILLER_0_221
*610 FILLER_0_223
*611 FILLER_0_225
*612 FILLER_0_237
*613 FILLER_0_249
*614 FILLER_0_251
*615 FILLER_0_253
*616 FILLER_0_265
*617 FILLER_0_27
*618 FILLER_0_277
*619 FILLER_0_279
*620 FILLER_0_281
*621 FILLER_0_29
*622 FILLER_0_293
*623 FILLER_0_3
*624 FILLER_0_305
*625 FILLER_0_307
*626 FILLER_0_309
*627 FILLER_0_321
*628 FILLER_0_333
*629 FILLER_0_335
*630 FILLER_0_337
*631 FILLER_0_349
*632 FILLER_0_361
*633 FILLER_0_363
*634 FILLER_0_365
*635 FILLER_0_377
*636 FILLER_0_389
*637 FILLER_0_391
*638 FILLER_0_393
*639 FILLER_0_405
*640 FILLER_0_41
*641 FILLER_0_417
*642 FILLER_0_419
*643 FILLER_0_421
*644 FILLER_0_433
*645 FILLER_0_445
*646 FILLER_0_447
*647 FILLER_0_449
*648 FILLER_0_461
*649 FILLER_0_473
*650 FILLER_0_475
*651 FILLER_0_477
*652 FILLER_0_489
*653 FILLER_0_501
*654 FILLER_0_503
*655 FILLER_0_505
*656 FILLER_0_509
*657 FILLER_0_511
*658 FILLER_0_518
*659 FILLER_0_525
*660 FILLER_0_529
*661 FILLER_0_53
*662 FILLER_0_531
*663 FILLER_0_533
*664 FILLER_0_545
*665 FILLER_0_55
*666 FILLER_0_557
*667 FILLER_0_559
*668 FILLER_0_561
*669 FILLER_0_569
*670 FILLER_0_57
*671 FILLER_0_576
*672 FILLER_0_589
*673 FILLER_0_601
*674 FILLER_0_613
*675 FILLER_0_615
*676 FILLER_0_617
*677 FILLER_0_629
*678 FILLER_0_641
*679 FILLER_0_643
*680 FILLER_0_645
*681 FILLER_0_657
*682 FILLER_0_669
*683 FILLER_0_671
*684 FILLER_0_673
*685 FILLER_0_685
*686 FILLER_0_69
*687 FILLER_0_697
*688 FILLER_0_699
*689 FILLER_0_701
*690 FILLER_0_713
*691 FILLER_0_725
*692 FILLER_0_727
*693 FILLER_0_729
*694 FILLER_0_741
*695 FILLER_0_753
*696 FILLER_0_755
*697 FILLER_0_757
*698 FILLER_0_769
*699 FILLER_0_781
*700 FILLER_0_783
*701 FILLER_0_785
*702 FILLER_0_797
*703 FILLER_0_809
*704 FILLER_0_81
*705 FILLER_0_811
*706 FILLER_0_813
*707 FILLER_0_825
*708 FILLER_0_83
*709 FILLER_0_837
*710 FILLER_0_839
*711 FILLER_0_841
*712 FILLER_0_85
*713 FILLER_0_853
*714 FILLER_0_865
*715 FILLER_0_867
*716 FILLER_0_869
*717 FILLER_0_881
*718 FILLER_0_893
*719 FILLER_0_895
*720 FILLER_0_897
*721 FILLER_0_909
*722 FILLER_0_921
*723 FILLER_0_923
*724 FILLER_0_925
*725 FILLER_0_937
*726 FILLER_0_949
*727 FILLER_0_951
*728 FILLER_0_953
*729 FILLER_0_965
*730 FILLER_0_97
*731 FILLER_0_977
*732 FILLER_0_979
*733 FILLER_0_981
*734 FILLER_0_993
*735 FILLER_100_1005
*736 FILLER_100_1017
*737 FILLER_100_1029
*738 FILLER_100_1033
*739 FILLER_100_1035
*740 FILLER_100_1037
*741 FILLER_100_1049
*742 FILLER_100_1057
*743 FILLER_100_109
*744 FILLER_100_121
*745 FILLER_100_133
*746 FILLER_100_137
*747 FILLER_100_139
*748 FILLER_100_141
*749 FILLER_100_15
*750 FILLER_100_153
*751 FILLER_100_165
*752 FILLER_100_177
*753 FILLER_100_189
*754 FILLER_100_193
*755 FILLER_100_195
*756 FILLER_100_197
*757 FILLER_100_209
*758 FILLER_100_221
*759 FILLER_100_233
*760 FILLER_100_245
*761 FILLER_100_249
*762 FILLER_100_251
*763 FILLER_100_253
*764 FILLER_100_265
*765 FILLER_100_27
*766 FILLER_100_277
*767 FILLER_100_289
*768 FILLER_100_29
*769 FILLER_100_3
*770 FILLER_100_301
*771 FILLER_100_305
*772 FILLER_100_307
*773 FILLER_100_309
*774 FILLER_100_321
*775 FILLER_100_333
*776 FILLER_100_345
*777 FILLER_100_357
*778 FILLER_100_361
*779 FILLER_100_363
*780 FILLER_100_365
*781 FILLER_100_377
*782 FILLER_100_389
*783 FILLER_100_401
*784 FILLER_100_41
*785 FILLER_100_413
*786 FILLER_100_417
*787 FILLER_100_419
*788 FILLER_100_421
*789 FILLER_100_433
*790 FILLER_100_445
*791 FILLER_100_457
*792 FILLER_100_469
*793 FILLER_100_473
*794 FILLER_100_475
*795 FILLER_100_477
*796 FILLER_100_489
*797 FILLER_100_501
*798 FILLER_100_513
*799 FILLER_100_525
*800 FILLER_100_529
*801 FILLER_100_53
*802 FILLER_100_531
*803 FILLER_100_533
*804 FILLER_100_545
*805 FILLER_100_557
*806 FILLER_100_569
*807 FILLER_100_581
*808 FILLER_100_585
*809 FILLER_100_587
*810 FILLER_100_589
*811 FILLER_100_601
*812 FILLER_100_613
*813 FILLER_100_625
*814 FILLER_100_637
*815 FILLER_100_641
*816 FILLER_100_643
*817 FILLER_100_645
*818 FILLER_100_65
*819 FILLER_100_657
*820 FILLER_100_669
*821 FILLER_100_681
*822 FILLER_100_693
*823 FILLER_100_697
*824 FILLER_100_699
*825 FILLER_100_701
*826 FILLER_100_713
*827 FILLER_100_725
*828 FILLER_100_737
*829 FILLER_100_749
*830 FILLER_100_753
*831 FILLER_100_755
*832 FILLER_100_757
*833 FILLER_100_769
*834 FILLER_100_77
*835 FILLER_100_781
*836 FILLER_100_793
*837 FILLER_100_805
*838 FILLER_100_809
*839 FILLER_100_81
*840 FILLER_100_811
*841 FILLER_100_813
*842 FILLER_100_825
*843 FILLER_100_83
*844 FILLER_100_837
*845 FILLER_100_849
*846 FILLER_100_85
*847 FILLER_100_861
*848 FILLER_100_865
*849 FILLER_100_867
*850 FILLER_100_869
*851 FILLER_100_881
*852 FILLER_100_899
*853 FILLER_100_925
*854 FILLER_100_937
*855 FILLER_100_949
*856 FILLER_100_961
*857 FILLER_100_97
*858 FILLER_100_973
*859 FILLER_100_977
*860 FILLER_100_979
*861 FILLER_100_981
*862 FILLER_100_993
*863 FILLER_101_1001
*864 FILLER_101_1005
*865 FILLER_101_1007
*866 FILLER_101_1009
*867 FILLER_101_1021
*868 FILLER_101_1033
*869 FILLER_101_1045
*870 FILLER_101_105
*871 FILLER_101_1057
*872 FILLER_101_109
*873 FILLER_101_111
*874 FILLER_101_113
*875 FILLER_101_125
*876 FILLER_101_137
*877 FILLER_101_149
*878 FILLER_101_15
*879 FILLER_101_161
*880 FILLER_101_165
*881 FILLER_101_167
*882 FILLER_101_169
*883 FILLER_101_181
*884 FILLER_101_193
*885 FILLER_101_205
*886 FILLER_101_217
*887 FILLER_101_221
*888 FILLER_101_223
*889 FILLER_101_225
*890 FILLER_101_237
*891 FILLER_101_249
*892 FILLER_101_261
*893 FILLER_101_27
*894 FILLER_101_273
*895 FILLER_101_277
*896 FILLER_101_279
*897 FILLER_101_281
*898 FILLER_101_293
*899 FILLER_101_3
*900 FILLER_101_305
*901 FILLER_101_317
*902 FILLER_101_329
*903 FILLER_101_333
*904 FILLER_101_335
*905 FILLER_101_337
*906 FILLER_101_349
*907 FILLER_101_361
*908 FILLER_101_373
*909 FILLER_101_385
*910 FILLER_101_389
*911 FILLER_101_39
*912 FILLER_101_391
*913 FILLER_101_393
*914 FILLER_101_405
*915 FILLER_101_417
*916 FILLER_101_429
*917 FILLER_101_441
*918 FILLER_101_445
*919 FILLER_101_447
*920 FILLER_101_449
*921 FILLER_101_461
*922 FILLER_101_473
*923 FILLER_101_485
*924 FILLER_101_497
*925 FILLER_101_501
*926 FILLER_101_503
*927 FILLER_101_505
*928 FILLER_101_51
*929 FILLER_101_517
*930 FILLER_101_529
*931 FILLER_101_541
*932 FILLER_101_55
*933 FILLER_101_553
*934 FILLER_101_557
*935 FILLER_101_559
*936 FILLER_101_561
*937 FILLER_101_57
*938 FILLER_101_573
*939 FILLER_101_585
*940 FILLER_101_597
*941 FILLER_101_609
*942 FILLER_101_613
*943 FILLER_101_615
*944 FILLER_101_617
*945 FILLER_101_629
*946 FILLER_101_641
*947 FILLER_101_653
*948 FILLER_101_665
*949 FILLER_101_669
*950 FILLER_101_671
*951 FILLER_101_673
*952 FILLER_101_685
*953 FILLER_101_69
*954 FILLER_101_697
*955 FILLER_101_709
*956 FILLER_101_721
*957 FILLER_101_725
*958 FILLER_101_727
*959 FILLER_101_729
*960 FILLER_101_741
*961 FILLER_101_753
*962 FILLER_101_765
*963 FILLER_101_777
*964 FILLER_101_781
*965 FILLER_101_783
*966 FILLER_101_785
*967 FILLER_101_797
*968 FILLER_101_809
*969 FILLER_101_81
*970 FILLER_101_821
*971 FILLER_101_833
*972 FILLER_101_837
*973 FILLER_101_839
*974 FILLER_101_841
*975 FILLER_101_853
*976 FILLER_101_865
*977 FILLER_101_877
*978 FILLER_101_889
*979 FILLER_101_893
*980 FILLER_101_895
*981 FILLER_101_897
*982 FILLER_101_905
*983 FILLER_101_907
*984 FILLER_101_911
*985 FILLER_101_923
*986 FILLER_101_93
*987 FILLER_101_935
*988 FILLER_101_947
*989 FILLER_101_951
*990 FILLER_101_953
*991 FILLER_101_965
*992 FILLER_101_977
*993 FILLER_101_989
*994 FILLER_102_1005
*995 FILLER_102_1017
*996 FILLER_102_1029
*997 FILLER_102_1033
*998 FILLER_102_1035
*999 FILLER_102_1037
*1000 FILLER_102_1049
*1001 FILLER_102_1057
*1002 FILLER_102_109
*1003 FILLER_102_121
*1004 FILLER_102_133
*1005 FILLER_102_137
*1006 FILLER_102_139
*1007 FILLER_102_141
*1008 FILLER_102_15
*1009 FILLER_102_153
*1010 FILLER_102_165
*1011 FILLER_102_177
*1012 FILLER_102_189
*1013 FILLER_102_193
*1014 FILLER_102_195
*1015 FILLER_102_197
*1016 FILLER_102_209
*1017 FILLER_102_221
*1018 FILLER_102_233
*1019 FILLER_102_245
*1020 FILLER_102_249
*1021 FILLER_102_251
*1022 FILLER_102_253
*1023 FILLER_102_265
*1024 FILLER_102_27
*1025 FILLER_102_277
*1026 FILLER_102_289
*1027 FILLER_102_29
*1028 FILLER_102_3
*1029 FILLER_102_301
*1030 FILLER_102_305
*1031 FILLER_102_307
*1032 FILLER_102_309
*1033 FILLER_102_321
*1034 FILLER_102_333
*1035 FILLER_102_345
*1036 FILLER_102_357
*1037 FILLER_102_361
*1038 FILLER_102_363
*1039 FILLER_102_365
*1040 FILLER_102_377
*1041 FILLER_102_389
*1042 FILLER_102_401
*1043 FILLER_102_41
*1044 FILLER_102_413
*1045 FILLER_102_417
*1046 FILLER_102_419
*1047 FILLER_102_421
*1048 FILLER_102_433
*1049 FILLER_102_445
*1050 FILLER_102_457
*1051 FILLER_102_469
*1052 FILLER_102_473
*1053 FILLER_102_475
*1054 FILLER_102_477
*1055 FILLER_102_489
*1056 FILLER_102_501
*1057 FILLER_102_513
*1058 FILLER_102_525
*1059 FILLER_102_529
*1060 FILLER_102_53
*1061 FILLER_102_531
*1062 FILLER_102_533
*1063 FILLER_102_545
*1064 FILLER_102_557
*1065 FILLER_102_569
*1066 FILLER_102_581
*1067 FILLER_102_585
*1068 FILLER_102_587
*1069 FILLER_102_589
*1070 FILLER_102_601
*1071 FILLER_102_613
*1072 FILLER_102_625
*1073 FILLER_102_637
*1074 FILLER_102_641
*1075 FILLER_102_643
*1076 FILLER_102_645
*1077 FILLER_102_65
*1078 FILLER_102_657
*1079 FILLER_102_669
*1080 FILLER_102_681
*1081 FILLER_102_693
*1082 FILLER_102_697
*1083 FILLER_102_699
*1084 FILLER_102_701
*1085 FILLER_102_713
*1086 FILLER_102_725
*1087 FILLER_102_737
*1088 FILLER_102_749
*1089 FILLER_102_753
*1090 FILLER_102_755
*1091 FILLER_102_757
*1092 FILLER_102_769
*1093 FILLER_102_77
*1094 FILLER_102_781
*1095 FILLER_102_793
*1096 FILLER_102_805
*1097 FILLER_102_809
*1098 FILLER_102_81
*1099 FILLER_102_811
*1100 FILLER_102_813
*1101 FILLER_102_825
*1102 FILLER_102_83
*1103 FILLER_102_837
*1104 FILLER_102_849
*1105 FILLER_102_85
*1106 FILLER_102_861
*1107 FILLER_102_865
*1108 FILLER_102_867
*1109 FILLER_102_869
*1110 FILLER_102_881
*1111 FILLER_102_893
*1112 FILLER_102_905
*1113 FILLER_102_917
*1114 FILLER_102_921
*1115 FILLER_102_923
*1116 FILLER_102_925
*1117 FILLER_102_937
*1118 FILLER_102_949
*1119 FILLER_102_961
*1120 FILLER_102_97
*1121 FILLER_102_973
*1122 FILLER_102_977
*1123 FILLER_102_979
*1124 FILLER_102_981
*1125 FILLER_102_993
*1126 FILLER_103_1001
*1127 FILLER_103_1005
*1128 FILLER_103_1007
*1129 FILLER_103_1009
*1130 FILLER_103_1021
*1131 FILLER_103_1033
*1132 FILLER_103_1045
*1133 FILLER_103_105
*1134 FILLER_103_1057
*1135 FILLER_103_109
*1136 FILLER_103_111
*1137 FILLER_103_113
*1138 FILLER_103_125
*1139 FILLER_103_137
*1140 FILLER_103_149
*1141 FILLER_103_15
*1142 FILLER_103_161
*1143 FILLER_103_165
*1144 FILLER_103_167
*1145 FILLER_103_169
*1146 FILLER_103_181
*1147 FILLER_103_193
*1148 FILLER_103_205
*1149 FILLER_103_217
*1150 FILLER_103_221
*1151 FILLER_103_223
*1152 FILLER_103_225
*1153 FILLER_103_237
*1154 FILLER_103_249
*1155 FILLER_103_261
*1156 FILLER_103_27
*1157 FILLER_103_273
*1158 FILLER_103_277
*1159 FILLER_103_279
*1160 FILLER_103_281
*1161 FILLER_103_293
*1162 FILLER_103_3
*1163 FILLER_103_305
*1164 FILLER_103_317
*1165 FILLER_103_329
*1166 FILLER_103_333
*1167 FILLER_103_335
*1168 FILLER_103_337
*1169 FILLER_103_349
*1170 FILLER_103_361
*1171 FILLER_103_373
*1172 FILLER_103_385
*1173 FILLER_103_389
*1174 FILLER_103_39
*1175 FILLER_103_391
*1176 FILLER_103_393
*1177 FILLER_103_405
*1178 FILLER_103_417
*1179 FILLER_103_429
*1180 FILLER_103_441
*1181 FILLER_103_445
*1182 FILLER_103_447
*1183 FILLER_103_449
*1184 FILLER_103_461
*1185 FILLER_103_473
*1186 FILLER_103_485
*1187 FILLER_103_497
*1188 FILLER_103_501
*1189 FILLER_103_503
*1190 FILLER_103_505
*1191 FILLER_103_51
*1192 FILLER_103_517
*1193 FILLER_103_529
*1194 FILLER_103_541
*1195 FILLER_103_55
*1196 FILLER_103_553
*1197 FILLER_103_557
*1198 FILLER_103_559
*1199 FILLER_103_561
*1200 FILLER_103_57
*1201 FILLER_103_573
*1202 FILLER_103_585
*1203 FILLER_103_597
*1204 FILLER_103_609
*1205 FILLER_103_613
*1206 FILLER_103_615
*1207 FILLER_103_617
*1208 FILLER_103_629
*1209 FILLER_103_641
*1210 FILLER_103_653
*1211 FILLER_103_665
*1212 FILLER_103_669
*1213 FILLER_103_671
*1214 FILLER_103_673
*1215 FILLER_103_685
*1216 FILLER_103_69
*1217 FILLER_103_697
*1218 FILLER_103_709
*1219 FILLER_103_721
*1220 FILLER_103_725
*1221 FILLER_103_727
*1222 FILLER_103_729
*1223 FILLER_103_741
*1224 FILLER_103_753
*1225 FILLER_103_765
*1226 FILLER_103_777
*1227 FILLER_103_781
*1228 FILLER_103_783
*1229 FILLER_103_785
*1230 FILLER_103_797
*1231 FILLER_103_809
*1232 FILLER_103_81
*1233 FILLER_103_821
*1234 FILLER_103_833
*1235 FILLER_103_837
*1236 FILLER_103_839
*1237 FILLER_103_841
*1238 FILLER_103_853
*1239 FILLER_103_865
*1240 FILLER_103_877
*1241 FILLER_103_889
*1242 FILLER_103_893
*1243 FILLER_103_895
*1244 FILLER_103_897
*1245 FILLER_103_909
*1246 FILLER_103_921
*1247 FILLER_103_93
*1248 FILLER_103_933
*1249 FILLER_103_945
*1250 FILLER_103_949
*1251 FILLER_103_951
*1252 FILLER_103_953
*1253 FILLER_103_965
*1254 FILLER_103_977
*1255 FILLER_103_989
*1256 FILLER_104_1005
*1257 FILLER_104_1017
*1258 FILLER_104_1029
*1259 FILLER_104_1033
*1260 FILLER_104_1035
*1261 FILLER_104_1037
*1262 FILLER_104_1049
*1263 FILLER_104_1057
*1264 FILLER_104_109
*1265 FILLER_104_121
*1266 FILLER_104_133
*1267 FILLER_104_137
*1268 FILLER_104_139
*1269 FILLER_104_141
*1270 FILLER_104_15
*1271 FILLER_104_153
*1272 FILLER_104_165
*1273 FILLER_104_177
*1274 FILLER_104_189
*1275 FILLER_104_193
*1276 FILLER_104_195
*1277 FILLER_104_197
*1278 FILLER_104_209
*1279 FILLER_104_221
*1280 FILLER_104_233
*1281 FILLER_104_245
*1282 FILLER_104_249
*1283 FILLER_104_251
*1284 FILLER_104_253
*1285 FILLER_104_265
*1286 FILLER_104_27
*1287 FILLER_104_277
*1288 FILLER_104_289
*1289 FILLER_104_29
*1290 FILLER_104_3
*1291 FILLER_104_301
*1292 FILLER_104_305
*1293 FILLER_104_307
*1294 FILLER_104_309
*1295 FILLER_104_321
*1296 FILLER_104_333
*1297 FILLER_104_345
*1298 FILLER_104_357
*1299 FILLER_104_361
*1300 FILLER_104_363
*1301 FILLER_104_365
*1302 FILLER_104_377
*1303 FILLER_104_389
*1304 FILLER_104_401
*1305 FILLER_104_41
*1306 FILLER_104_413
*1307 FILLER_104_417
*1308 FILLER_104_419
*1309 FILLER_104_421
*1310 FILLER_104_433
*1311 FILLER_104_445
*1312 FILLER_104_457
*1313 FILLER_104_469
*1314 FILLER_104_473
*1315 FILLER_104_475
*1316 FILLER_104_477
*1317 FILLER_104_489
*1318 FILLER_104_501
*1319 FILLER_104_513
*1320 FILLER_104_525
*1321 FILLER_104_529
*1322 FILLER_104_53
*1323 FILLER_104_531
*1324 FILLER_104_533
*1325 FILLER_104_545
*1326 FILLER_104_557
*1327 FILLER_104_569
*1328 FILLER_104_581
*1329 FILLER_104_585
*1330 FILLER_104_587
*1331 FILLER_104_589
*1332 FILLER_104_601
*1333 FILLER_104_613
*1334 FILLER_104_625
*1335 FILLER_104_637
*1336 FILLER_104_641
*1337 FILLER_104_643
*1338 FILLER_104_645
*1339 FILLER_104_65
*1340 FILLER_104_657
*1341 FILLER_104_669
*1342 FILLER_104_681
*1343 FILLER_104_693
*1344 FILLER_104_697
*1345 FILLER_104_699
*1346 FILLER_104_701
*1347 FILLER_104_713
*1348 FILLER_104_725
*1349 FILLER_104_737
*1350 FILLER_104_749
*1351 FILLER_104_753
*1352 FILLER_104_755
*1353 FILLER_104_757
*1354 FILLER_104_769
*1355 FILLER_104_77
*1356 FILLER_104_781
*1357 FILLER_104_793
*1358 FILLER_104_805
*1359 FILLER_104_809
*1360 FILLER_104_81
*1361 FILLER_104_811
*1362 FILLER_104_813
*1363 FILLER_104_825
*1364 FILLER_104_83
*1365 FILLER_104_837
*1366 FILLER_104_849
*1367 FILLER_104_85
*1368 FILLER_104_861
*1369 FILLER_104_865
*1370 FILLER_104_867
*1371 FILLER_104_869
*1372 FILLER_104_881
*1373 FILLER_104_893
*1374 FILLER_104_905
*1375 FILLER_104_917
*1376 FILLER_104_921
*1377 FILLER_104_923
*1378 FILLER_104_925
*1379 FILLER_104_937
*1380 FILLER_104_949
*1381 FILLER_104_961
*1382 FILLER_104_97
*1383 FILLER_104_973
*1384 FILLER_104_977
*1385 FILLER_104_979
*1386 FILLER_104_981
*1387 FILLER_104_993
*1388 FILLER_105_1001
*1389 FILLER_105_1005
*1390 FILLER_105_1007
*1391 FILLER_105_1009
*1392 FILLER_105_1021
*1393 FILLER_105_1033
*1394 FILLER_105_1045
*1395 FILLER_105_105
*1396 FILLER_105_1057
*1397 FILLER_105_109
*1398 FILLER_105_111
*1399 FILLER_105_113
*1400 FILLER_105_125
*1401 FILLER_105_137
*1402 FILLER_105_149
*1403 FILLER_105_15
*1404 FILLER_105_161
*1405 FILLER_105_165
*1406 FILLER_105_167
*1407 FILLER_105_169
*1408 FILLER_105_181
*1409 FILLER_105_193
*1410 FILLER_105_205
*1411 FILLER_105_217
*1412 FILLER_105_221
*1413 FILLER_105_223
*1414 FILLER_105_225
*1415 FILLER_105_237
*1416 FILLER_105_249
*1417 FILLER_105_261
*1418 FILLER_105_27
*1419 FILLER_105_273
*1420 FILLER_105_277
*1421 FILLER_105_279
*1422 FILLER_105_281
*1423 FILLER_105_293
*1424 FILLER_105_3
*1425 FILLER_105_305
*1426 FILLER_105_317
*1427 FILLER_105_329
*1428 FILLER_105_333
*1429 FILLER_105_335
*1430 FILLER_105_337
*1431 FILLER_105_349
*1432 FILLER_105_361
*1433 FILLER_105_373
*1434 FILLER_105_385
*1435 FILLER_105_389
*1436 FILLER_105_39
*1437 FILLER_105_391
*1438 FILLER_105_393
*1439 FILLER_105_405
*1440 FILLER_105_417
*1441 FILLER_105_429
*1442 FILLER_105_441
*1443 FILLER_105_445
*1444 FILLER_105_447
*1445 FILLER_105_449
*1446 FILLER_105_461
*1447 FILLER_105_473
*1448 FILLER_105_485
*1449 FILLER_105_497
*1450 FILLER_105_501
*1451 FILLER_105_503
*1452 FILLER_105_505
*1453 FILLER_105_51
*1454 FILLER_105_517
*1455 FILLER_105_529
*1456 FILLER_105_541
*1457 FILLER_105_55
*1458 FILLER_105_553
*1459 FILLER_105_557
*1460 FILLER_105_559
*1461 FILLER_105_561
*1462 FILLER_105_57
*1463 FILLER_105_573
*1464 FILLER_105_585
*1465 FILLER_105_597
*1466 FILLER_105_609
*1467 FILLER_105_613
*1468 FILLER_105_615
*1469 FILLER_105_617
*1470 FILLER_105_629
*1471 FILLER_105_641
*1472 FILLER_105_653
*1473 FILLER_105_665
*1474 FILLER_105_669
*1475 FILLER_105_671
*1476 FILLER_105_673
*1477 FILLER_105_685
*1478 FILLER_105_69
*1479 FILLER_105_697
*1480 FILLER_105_709
*1481 FILLER_105_721
*1482 FILLER_105_725
*1483 FILLER_105_727
*1484 FILLER_105_729
*1485 FILLER_105_741
*1486 FILLER_105_753
*1487 FILLER_105_765
*1488 FILLER_105_777
*1489 FILLER_105_781
*1490 FILLER_105_783
*1491 FILLER_105_785
*1492 FILLER_105_797
*1493 FILLER_105_809
*1494 FILLER_105_81
*1495 FILLER_105_821
*1496 FILLER_105_833
*1497 FILLER_105_837
*1498 FILLER_105_839
*1499 FILLER_105_841
*1500 FILLER_105_853
*1501 FILLER_105_865
*1502 FILLER_105_877
*1503 FILLER_105_889
*1504 FILLER_105_893
*1505 FILLER_105_895
*1506 FILLER_105_897
*1507 FILLER_105_909
*1508 FILLER_105_921
*1509 FILLER_105_93
*1510 FILLER_105_933
*1511 FILLER_105_945
*1512 FILLER_105_949
*1513 FILLER_105_951
*1514 FILLER_105_953
*1515 FILLER_105_965
*1516 FILLER_105_977
*1517 FILLER_105_989
*1518 FILLER_106_1005
*1519 FILLER_106_1017
*1520 FILLER_106_1029
*1521 FILLER_106_1033
*1522 FILLER_106_1035
*1523 FILLER_106_1037
*1524 FILLER_106_1049
*1525 FILLER_106_1057
*1526 FILLER_106_109
*1527 FILLER_106_121
*1528 FILLER_106_133
*1529 FILLER_106_137
*1530 FILLER_106_139
*1531 FILLER_106_141
*1532 FILLER_106_15
*1533 FILLER_106_153
*1534 FILLER_106_165
*1535 FILLER_106_177
*1536 FILLER_106_189
*1537 FILLER_106_193
*1538 FILLER_106_195
*1539 FILLER_106_197
*1540 FILLER_106_209
*1541 FILLER_106_221
*1542 FILLER_106_233
*1543 FILLER_106_245
*1544 FILLER_106_249
*1545 FILLER_106_251
*1546 FILLER_106_253
*1547 FILLER_106_265
*1548 FILLER_106_27
*1549 FILLER_106_277
*1550 FILLER_106_289
*1551 FILLER_106_29
*1552 FILLER_106_3
*1553 FILLER_106_301
*1554 FILLER_106_305
*1555 FILLER_106_307
*1556 FILLER_106_309
*1557 FILLER_106_321
*1558 FILLER_106_333
*1559 FILLER_106_345
*1560 FILLER_106_357
*1561 FILLER_106_361
*1562 FILLER_106_363
*1563 FILLER_106_365
*1564 FILLER_106_377
*1565 FILLER_106_389
*1566 FILLER_106_401
*1567 FILLER_106_41
*1568 FILLER_106_413
*1569 FILLER_106_417
*1570 FILLER_106_419
*1571 FILLER_106_421
*1572 FILLER_106_433
*1573 FILLER_106_445
*1574 FILLER_106_457
*1575 FILLER_106_469
*1576 FILLER_106_473
*1577 FILLER_106_475
*1578 FILLER_106_477
*1579 FILLER_106_489
*1580 FILLER_106_501
*1581 FILLER_106_513
*1582 FILLER_106_525
*1583 FILLER_106_529
*1584 FILLER_106_53
*1585 FILLER_106_531
*1586 FILLER_106_533
*1587 FILLER_106_545
*1588 FILLER_106_557
*1589 FILLER_106_569
*1590 FILLER_106_581
*1591 FILLER_106_585
*1592 FILLER_106_587
*1593 FILLER_106_589
*1594 FILLER_106_601
*1595 FILLER_106_613
*1596 FILLER_106_625
*1597 FILLER_106_637
*1598 FILLER_106_641
*1599 FILLER_106_643
*1600 FILLER_106_645
*1601 FILLER_106_65
*1602 FILLER_106_657
*1603 FILLER_106_669
*1604 FILLER_106_681
*1605 FILLER_106_693
*1606 FILLER_106_697
*1607 FILLER_106_699